Version 4
SHEET 1 880 680
WIRE -432 48 -464 48
WIRE 288 48 -352 48
WIRE 416 48 288 48
WIRE 624 48 416 48
WIRE 400 128 288 128
WIRE 416 128 400 128
WIRE 640 128 624 128
WIRE 80 144 32 144
WIRE 96 144 80 144
WIRE -32 176 -32 112
WIRE -32 176 -48 176
WIRE -464 192 -464 48
WIRE -160 192 -464 192
WIRE -96 208 -96 112
WIRE -48 208 -48 176
WIRE 32 208 32 144
WIRE 160 208 160 192
WIRE 160 208 80 208
WIRE 384 208 288 208
WIRE 400 208 384 208
WIRE -208 224 -336 224
WIRE -160 224 -208 224
WIRE 416 240 416 128
WIRE 464 240 416 240
WIRE 640 240 640 128
WIRE 640 240 544 240
WIRE -336 288 -336 224
WIRE -208 288 -208 224
WIRE 368 288 288 288
WIRE 384 288 368 288
WIRE 400 304 400 208
WIRE 464 304 400 304
WIRE 640 304 640 240
WIRE 640 304 544 304
WIRE -464 352 -464 192
WIRE 352 368 288 368
WIRE 368 368 352 368
WIRE 384 368 384 288
WIRE 464 368 384 368
WIRE 640 368 640 304
WIRE 640 368 544 368
WIRE 640 400 640 368
WIRE 640 400 624 400
WIRE 352 448 288 448
WIRE 368 448 368 368
WIRE 464 448 368 448
WIRE 640 448 640 400
WIRE 640 448 544 448
WIRE 352 496 352 448
WIRE 464 496 352 496
WIRE 640 496 640 448
WIRE 640 496 544 496
WIRE -464 528 -464 480
WIRE -336 528 -336 368
WIRE -336 528 -464 528
WIRE -208 528 -208 368
WIRE -208 528 -336 528
WIRE -128 528 -128 240
WIRE -128 528 -208 528
WIRE 288 528 -128 528
WIRE 640 528 640 496
WIRE 640 528 288 528
FLAG -208 528 0
SYMBOL voltage 288 32 R0
WINDOW 123 0 0 Left 0
WINDOW 39 24 124 Left 2
SYMATTR SpiceLine Rser=1m
SYMATTR InstName V1
SYMATTR Value 3.7
SYMBOL voltage 288 112 R0
WINDOW 123 0 0 Left 0
WINDOW 39 24 124 Left 2
SYMATTR SpiceLine Rser=1m
SYMATTR InstName V2
SYMATTR Value 3.7
SYMBOL voltage 288 192 R0
WINDOW 123 0 0 Left 0
WINDOW 39 24 124 Left 2
SYMATTR SpiceLine Rser=1m
SYMATTR InstName V3
SYMATTR Value 3.7
SYMBOL voltage 288 272 R0
WINDOW 123 0 0 Left 0
WINDOW 39 24 124 Left 2
SYMATTR SpiceLine Rser=1m
SYMATTR InstName V4
SYMATTR Value 3.7
SYMBOL voltage 288 352 R0
WINDOW 123 0 0 Left 0
WINDOW 39 24 124 Left 2
SYMATTR SpiceLine Rser=1m
SYMATTR InstName V5
SYMATTR Value 3.7
SYMBOL voltage 288 432 R0
WINDOW 123 0 0 Left 0
WINDOW 39 24 124 Left 2
SYMATTR SpiceLine Rser=1m
SYMATTR InstName V6
SYMATTR Value 3.7
SYMBOL res -224 272 R0
SYMATTR InstName R1
SYMATTR Value 1k
SYMBOL npn 96 96 R0
SYMATTR InstName Q1
SYMBOL res 48 192 R90
WINDOW 0 0 56 VBottom 2
WINDOW 3 32 56 VTop 2
SYMATTR InstName R3
SYMATTR Value 2.2k
SYMBOL diode 96 208 R180
WINDOW 0 24 64 Left 2
WINDOW 3 24 0 Left 2
SYMATTR InstName D1
SYMATTR Value 1N4148
SYMBOL OpAmps\\UniversalOpAmp4 -128 208 R0
SYMATTR InstName U1
SYMBOL diode -96 128 R270
WINDOW 0 32 32 VTop 2
WINDOW 3 0 32 VBottom 2
SYMATTR InstName D2
SYMBOL diode -480 416 R0
SYMATTR InstName D3
SYMATTR Value 1N4148
SYMBOL diode -480 352 R0
SYMATTR InstName D4
SYMATTR Value 1N4148
SYMBOL voltage -336 272 R0
WINDOW 123 0 0 Left 0
WINDOW 39 0 0 Left 0
SYMATTR InstName V7
SYMATTR Value PULSE(0 5 0 0 0 1m 10m)
SYMBOL res 608 32 R0
SYMATTR InstName R2
SYMATTR Value 94k
SYMBOL res 560 224 R90
WINDOW 0 0 56 VBottom 2
WINDOW 3 32 56 VTop 2
SYMATTR InstName R4
SYMATTR Value 47k
SYMBOL res 560 288 R90
WINDOW 0 0 56 VBottom 2
WINDOW 3 32 56 VTop 2
SYMATTR InstName R5
SYMATTR Value 47k
SYMBOL res 560 352 R90
WINDOW 0 0 56 VBottom 2
WINDOW 3 32 56 VTop 2
SYMATTR InstName R6
SYMATTR Value 47k
SYMBOL res 560 432 R90
WINDOW 0 0 56 VBottom 2
WINDOW 3 32 56 VTop 2
SYMATTR InstName R7
SYMATTR Value 47k
SYMBOL res 560 480 R90
WINDOW 0 0 56 VBottom 2
WINDOW 3 32 56 VTop 2
SYMATTR InstName R8
SYMATTR Value 47k
SYMBOL res 400 32 R0
SYMATTR InstName R9
SYMATTR Value 3.1k
SYMBOL res 384 112 R0
SYMATTR InstName R10
SYMATTR Value 4.7k
SYMBOL res 368 192 R0
SYMATTR InstName R11
SYMATTR Value 7.833k
SYMBOL res 352 272 R0
SYMATTR InstName R12
SYMATTR Value 15.6666k
SYMBOL res 336 352 R0
SYMATTR InstName R13
SYMATTR Value 47k
TEXT -496 552 Left 2 !.tran 1s
