Version 4
SHEET 1 5452 1912
WIRE 640 -704 320 -704
WIRE 1104 -704 976 -704
WIRE 1376 -704 1104 -704
WIRE 1728 -704 1376 -704
WIRE 576 -688 32 -688
WIRE -240 -640 -384 -640
WIRE -48 -640 -240 -640
WIRE 192 -640 -48 -640
WIRE 320 -640 320 -704
WIRE 320 -640 192 -640
WIRE 384 -640 320 -640
WIRE 640 -640 640 -704
WIRE 384 -624 384 -640
WIRE 192 -592 192 -640
WIRE -720 -576 -1056 -576
WIRE -672 -576 -720 -576
WIRE 304 -576 240 -576
WIRE 480 -576 448 -576
WIRE 560 -544 560 -576
WIRE 640 -544 640 -560
WIRE 640 -544 560 -544
WIRE -48 -512 -48 -560
WIRE 32 -512 32 -608
WIRE 32 -512 -48 -512
WIRE 640 -512 640 -544
WIRE 976 -512 976 -704
WIRE -944 -496 -976 -496
WIRE -736 -496 -752 -496
WIRE -384 -496 -384 -640
WIRE 384 -496 384 -528
WIRE 384 -496 304 -496
WIRE 1104 -496 1104 -704
WIRE 384 -480 384 -496
WIRE -432 -464 -624 -464
WIRE -240 -464 -240 -560
WIRE -192 -464 -240 -464
WIRE 192 -464 192 -496
WIRE 352 -464 272 -464
WIRE 576 -464 576 -688
WIRE -720 -448 -720 -576
WIRE -704 -448 -720 -448
WIRE -48 -448 -48 -512
WIRE -32 -448 -48 -448
WIRE 80 -448 -32 -448
WIRE 352 -432 352 -464
WIRE 928 -432 352 -432
WIRE -1136 -416 -1168 -416
WIRE -1056 -416 -1056 -576
WIRE -976 -416 -976 -496
WIRE -192 -416 -192 -464
WIRE -192 -416 -224 -416
WIRE -176 -416 -192 -416
WIRE -32 -416 -32 -448
WIRE 80 -416 80 -448
WIRE 272 -416 272 -464
WIRE 272 -416 192 -416
WIRE -1136 -400 -1136 -416
WIRE -944 -400 -1136 -400
WIRE 352 -400 352 -432
WIRE -736 -368 -736 -496
WIRE -704 -368 -736 -368
WIRE -624 -368 -624 -464
WIRE -624 -368 -704 -368
WIRE -432 -368 -432 -464
WIRE -368 -368 -432 -368
WIRE -176 -368 -176 -416
WIRE -944 -336 -1168 -336
WIRE -880 -336 -944 -336
WIRE -752 -336 -752 -400
WIRE -704 -336 -752 -336
WIRE -176 -336 -176 -368
WIRE 144 -336 80 -336
WIRE -384 -320 -384 -416
WIRE -224 -320 -384 -320
WIRE -160 -320 -224 -320
WIRE -32 -320 -160 -320
WIRE 144 -320 -32 -320
WIRE 192 -320 144 -320
WIRE 1376 -320 1376 -704
WIRE 1728 -304 1728 -704
WIRE 1904 -304 1728 -304
WIRE 1904 -288 1904 -304
WIRE -944 -272 -944 -336
WIRE -704 -272 -704 -336
WIRE -704 -272 -944 -272
WIRE -672 -272 -672 -496
WIRE -672 -272 -704 -272
WIRE -160 -272 -160 -320
WIRE -160 -272 -672 -272
WIRE 384 -272 384 -400
WIRE 640 -272 640 -416
WIRE 640 -272 384 -272
WIRE 976 -272 976 -416
WIRE 976 -272 640 -272
WIRE 1008 -272 976 -272
WIRE 1104 -272 1104 -432
WIRE 1104 -272 1008 -272
WIRE 1120 -272 1120 -320
WIRE 1120 -272 1104 -272
WIRE 1136 -272 1120 -272
WIRE 1232 -272 1216 -272
WIRE 1264 -272 1264 -320
WIRE 1264 -272 1232 -272
WIRE 1280 -272 1264 -272
WIRE 144 -256 144 -320
WIRE 272 -256 272 -336
WIRE 272 -256 144 -256
WIRE 352 -256 352 -336
WIRE 352 -256 272 -256
WIRE 384 -256 384 -272
WIRE 384 -256 352 -256
WIRE 1728 -240 1728 -304
WIRE 1376 -224 1376 -240
WIRE 1392 -224 1376 -224
WIRE 624 -208 304 -208
WIRE 560 -192 16 -192
WIRE 1232 -160 1232 -272
WIRE -256 -144 -400 -144
WIRE -64 -144 -256 -144
WIRE 176 -144 -64 -144
WIRE 304 -144 304 -208
WIRE 304 -144 176 -144
WIRE 368 -144 304 -144
WIRE 624 -144 624 -208
WIRE 368 -128 368 -144
WIRE -400 -112 -400 -144
WIRE -400 -112 -496 -112
WIRE 1728 -112 1728 -176
WIRE 1904 -112 1904 -208
WIRE 1904 -112 1728 -112
WIRE 176 -96 176 -144
WIRE -688 -80 -736 -80
WIRE 288 -80 224 -80
WIRE 464 -80 432 -80
WIRE 544 -48 544 -80
WIRE 624 -48 624 -64
WIRE 624 -48 544 -48
WIRE 1008 -32 1008 -272
WIRE -64 -16 -64 -64
WIRE 16 -16 16 -112
WIRE 16 -16 -64 -16
WIRE 624 -16 624 -48
WIRE 1104 -16 1104 -272
WIRE 1120 -16 1104 -16
WIRE -960 0 -992 0
WIRE -752 0 -768 0
WIRE -400 0 -400 -112
WIRE 368 0 368 -32
WIRE 368 0 288 0
WIRE 368 16 368 0
WIRE 1280 16 1280 -272
WIRE -448 32 -640 32
WIRE -256 32 -256 -64
WIRE -208 32 -256 32
WIRE 176 32 176 0
WIRE 336 32 256 32
WIRE 560 32 560 -192
WIRE 1328 32 1328 16
WIRE -736 48 -736 -80
WIRE -720 48 -736 48
WIRE -64 48 -64 -16
WIRE -48 48 -64 48
WIRE 64 48 -48 48
WIRE 336 48 336 32
WIRE 960 48 336 48
WIRE -1072 80 -1184 80
WIRE -992 80 -992 0
WIRE -208 80 -208 32
WIRE -208 80 -240 80
WIRE -192 80 -208 80
WIRE -48 80 -48 48
WIRE 64 80 64 48
WIRE 256 80 256 32
WIRE 256 80 176 80
WIRE -960 96 -976 96
WIRE 336 96 336 48
WIRE 1280 96 1264 96
WIRE 1360 96 1280 96
WIRE -752 128 -752 0
WIRE -720 128 -752 128
WIRE -640 128 -640 32
WIRE -640 128 -720 128
WIRE -448 128 -448 32
WIRE -384 128 -448 128
WIRE -192 128 -192 80
WIRE -976 144 -976 96
WIRE -896 144 -976 144
WIRE 1264 144 1264 96
WIRE 1392 144 1392 -224
WIRE 1472 144 1392 144
WIRE 1712 144 1472 144
WIRE -960 160 -1184 160
WIRE -896 160 -896 144
WIRE -896 160 -960 160
WIRE -768 160 -768 96
WIRE -720 160 -768 160
WIRE -192 160 -192 128
WIRE 128 160 64 160
WIRE 1472 160 1472 144
WIRE -400 176 -400 80
WIRE -240 176 -400 176
WIRE -176 176 -240 176
WIRE -48 176 -176 176
WIRE 128 176 -48 176
WIRE 176 176 128 176
WIRE 1728 208 1728 -112
WIRE 1792 208 1728 208
WIRE 1808 208 1792 208
WIRE -960 224 -960 160
WIRE -720 224 -720 160
WIRE -720 224 -960 224
WIRE -688 224 -688 0
WIRE -688 224 -720 224
WIRE -176 224 -176 176
WIRE -176 224 -688 224
WIRE 368 224 368 96
WIRE 624 224 624 80
WIRE 624 224 368 224
WIRE 1008 224 1008 64
WIRE 1008 224 624 224
WIRE 1120 224 1120 48
WIRE 1120 224 1008 224
WIRE 1232 224 1232 -96
WIRE 1232 224 1120 224
WIRE 1264 224 1232 224
WIRE 1312 224 1312 160
WIRE 1312 224 1264 224
WIRE 1392 224 1312 224
WIRE 1472 224 1392 224
WIRE 1728 224 1728 208
WIRE 1728 224 1472 224
WIRE 128 240 128 176
WIRE 256 240 256 160
WIRE 256 240 128 240
WIRE 336 240 336 160
WIRE 336 240 256 240
WIRE 368 240 368 224
WIRE 368 240 336 240
WIRE 1808 272 1808 208
WIRE 1632 304 1072 304
WIRE 1360 336 1360 96
WIRE 1392 336 1360 336
WIRE 1632 336 1632 304
WIRE 1664 336 1632 336
WIRE 1712 336 1712 144
WIRE 1888 336 1712 336
WIRE 1968 336 1888 336
WIRE 2048 336 1968 336
WIRE 2128 336 2048 336
WIRE 1792 368 1792 208
WIRE 1968 368 1792 368
WIRE 1232 400 1232 224
WIRE 1328 400 1232 400
WIRE 1472 400 1328 400
WIRE 1552 400 1472 400
WIRE 1632 400 1552 400
WIRE 1680 400 1632 400
WIRE 1776 416 1472 416
WIRE 1888 432 1712 432
WIRE -496 464 -496 -112
WIRE 1424 464 -496 464
WIRE 1472 464 1472 416
WIRE 1472 464 1424 464
WIRE 1616 464 1504 464
WIRE 1712 464 1712 432
WIRE 1712 464 1696 464
WIRE 1776 464 1776 416
WIRE 1504 480 1504 464
WIRE 1504 480 1472 480
WIRE 1712 480 1712 464
WIRE 1744 480 1712 480
WIRE 1888 496 1888 432
WIRE 1312 512 1200 512
WIRE 1632 512 1584 512
WIRE 1744 512 1632 512
WIRE 1424 528 1424 464
WIRE 1424 528 1376 528
WIRE 1456 528 1424 528
WIRE 1632 528 1632 512
WIRE 1376 560 1376 528
WIRE 1312 576 1312 512
WIRE 1344 576 1312 576
WIRE 1296 592 1200 592
WIRE 1440 592 1408 592
WIRE 1776 592 1776 528
WIRE 1792 592 1792 576
WIRE 1792 592 1776 592
WIRE 1968 592 1968 368
WIRE 1968 592 1792 592
WIRE 1328 608 1328 400
WIRE 1344 608 1328 608
WIRE 1440 608 1440 592
WIRE 1472 608 1472 480
WIRE 1472 608 1440 608
WIRE 1376 624 1360 624
WIRE 1632 640 1632 608
WIRE 1776 640 1632 640
WIRE 1792 640 1792 592
WIRE 1792 640 1776 640
WIRE 1296 656 1296 592
WIRE 1440 656 1440 608
WIRE 1440 656 1296 656
WIRE 1440 672 1200 672
WIRE 1360 688 1360 624
WIRE 1776 688 1776 640
WIRE 1776 688 1360 688
WIRE 1456 736 1456 528
WIRE 1456 736 1376 736
WIRE 1328 752 1200 752
WIRE 1376 752 1376 736
WIRE 1328 768 1328 752
WIRE 1344 768 1328 768
WIRE 1440 784 1440 672
WIRE 1440 784 1408 784
WIRE 1504 784 1504 512
WIRE 1504 784 1440 784
WIRE 1072 800 1072 304
WIRE 1344 800 1072 800
WIRE 1360 816 1360 688
WIRE 1376 816 1360 816
FLAG 176 176 0
DATAFLAG 112 -192 ""
SYMBOL nmos 128 80 R0
SYMATTR InstName M1
SYMATTR Value irf540n
SYMATTR Prefix X
SYMBOL voltage -400 -16 R0
WINDOW 123 0 0 Left 0
WINDOW 39 24 124 Left 2
SYMATTR SpiceLine Rser=0.1
SYMATTR InstName V1
SYMATTR Value 15
SYMBOL npn -112 80 R0
SYMATTR InstName Q1
SYMATTR Value 2N3904
SYMBOL res -80 -160 R0
SYMATTR InstName R1
SYMATTR Value 1k
SYMATTR SpiceLine tol=5 pwr=0.25
SYMBOL res -96 112 R90
WINDOW 0 0 56 VBottom 2
WINDOW 3 32 56 VTop 2
SYMATTR InstName R2
SYMATTR Value 1k
SYMATTR SpiceLine tol=5 pwr=0.25
SYMBOL voltage -1184 64 R0
WINDOW 123 0 0 Left 0
WINDOW 39 0 0 Left 0
SYMATTR InstName V2
SYMATTR Value PULSE(0 5 0u 0u 0u 5u 10u)
SYMBOL pmos 224 0 R180
SYMATTR InstName M2
SYMATTR Value irf9540npbf
SYMATTR Prefix X
SYMBOL res 48 64 R0
SYMATTR InstName R3
SYMATTR Value 100
SYMBOL pnp 432 -32 R180
SYMATTR InstName Q2
SYMATTR Value 2N3906
SYMBOL res 352 0 R0
SYMATTR InstName R5
SYMATTR Value 220
SYMBOL res 560 -96 R90
WINDOW 0 0 56 VBottom 2
WINDOW 3 32 56 VTop 2
SYMATTR InstName R6
SYMATTR Value 1k
SYMBOL res 272 -96 R0
SYMATTR InstName R7
SYMATTR Value 100
SYMBOL res 608 -160 R0
SYMATTR InstName R8
SYMATTR Value 1k
SYMBOL npn 560 -16 R0
SYMATTR InstName Q3
SYMATTR Value 2N3904
SYMBOL res 272 16 R90
WINDOW 0 0 56 VBottom 2
WINDOW 3 32 56 VTop 2
SYMATTR InstName R10
SYMATTR Value 10
SYMBOL res 240 64 R0
SYMATTR InstName R4
SYMATTR Value 1000
SYMBOL npn -304 80 R0
SYMATTR InstName Q4
SYMATTR Value 2N3904
SYMBOL res -272 -160 R0
SYMATTR InstName R11
SYMATTR Value 1k
SYMBOL res -288 112 R90
WINDOW 0 0 56 VBottom 2
WINDOW 3 32 56 VTop 2
SYMATTR InstName R12
SYMATTR Value 1k
SYMBOL res 0 -208 R0
SYMATTR InstName R9
SYMATTR Value 10k
SYMBOL res -976 64 R90
WINDOW 0 0 56 VBottom 2
WINDOW 3 32 56 VTop 2
SYMATTR InstName R13
SYMATTR Value 100
SYMBOL voltage -688 -96 R0
WINDOW 123 0 0 Left 0
WINDOW 39 0 0 Left 0
SYMATTR InstName V3
SYMATTR Value 5
SYMBOL res -736 32 R0
SYMATTR InstName R14
SYMATTR Value 470
SYMBOL Optos\\PC817C -864 48 R0
SYMATTR InstName U1
SYMBOL cap 320 96 R0
SYMATTR InstName C1
SYMATTR Value 100n
SYMBOL nmos 144 -416 R0
SYMATTR InstName M3
SYMATTR Value irf540n
SYMATTR Prefix X
SYMBOL voltage -384 -512 R0
WINDOW 123 0 0 Left 0
WINDOW 39 24 124 Left 2
SYMATTR SpiceLine Rser=0.1
SYMATTR InstName V4
SYMATTR Value 15
SYMBOL npn -96 -416 R0
SYMATTR InstName Q5
SYMATTR Value 2N3904
SYMBOL res -64 -656 R0
SYMATTR InstName R15
SYMATTR Value 1k
SYMATTR SpiceLine tol=5 pwr=0.25
SYMBOL res -80 -384 R90
WINDOW 0 0 56 VBottom 2
WINDOW 3 32 56 VTop 2
SYMATTR InstName R16
SYMATTR Value 1k
SYMATTR SpiceLine tol=5 pwr=0.25
SYMBOL voltage -1168 -432 R0
WINDOW 123 0 0 Left 0
WINDOW 39 0 0 Left 0
SYMATTR InstName V5
SYMATTR Value PULSE(0 5 0u 0u 0u 5u 10u)
SYMBOL pmos 240 -496 R180
SYMATTR InstName M4
SYMATTR Value irf9540npbf
SYMATTR Prefix X
SYMBOL res 64 -432 R0
SYMATTR InstName R17
SYMATTR Value 100
SYMBOL pnp 448 -528 R180
SYMATTR InstName Q6
SYMATTR Value 2N3906
SYMBOL res 368 -496 R0
SYMATTR InstName R18
SYMATTR Value 220
SYMBOL res 576 -592 R90
WINDOW 0 0 56 VBottom 2
WINDOW 3 32 56 VTop 2
SYMATTR InstName R19
SYMATTR Value 1k
SYMBOL res 288 -592 R0
SYMATTR InstName R20
SYMATTR Value 100
SYMBOL res 624 -656 R0
SYMATTR InstName R21
SYMATTR Value 1k
SYMBOL npn 576 -512 R0
SYMATTR InstName Q7
SYMATTR Value 2N3904
SYMBOL res 288 -480 R90
WINDOW 0 0 56 VBottom 2
WINDOW 3 32 56 VTop 2
SYMATTR InstName R22
SYMATTR Value 10
SYMBOL res 256 -432 R0
SYMATTR InstName R23
SYMATTR Value 1000
SYMBOL npn -288 -416 R0
SYMATTR InstName Q8
SYMATTR Value 2N3904
SYMBOL res -256 -656 R0
SYMATTR InstName R24
SYMATTR Value 1k
SYMBOL res -272 -384 R90
WINDOW 0 0 56 VBottom 2
WINDOW 3 32 56 VTop 2
SYMATTR InstName R25
SYMATTR Value 1k
SYMBOL res 16 -704 R0
SYMATTR InstName R26
SYMATTR Value 10k
SYMBOL res -960 -432 R90
WINDOW 0 0 56 VBottom 2
WINDOW 3 32 56 VTop 2
SYMATTR InstName R27
SYMATTR Value 100
SYMBOL voltage -672 -592 R0
WINDOW 123 0 0 Left 0
WINDOW 39 0 0 Left 0
SYMATTR InstName V6
SYMATTR Value 5
SYMBOL res -720 -464 R0
SYMATTR InstName R28
SYMATTR Value 470
SYMBOL Optos\\PC817C -848 -448 R0
SYMATTR InstName U2
SYMBOL cap 336 -400 R0
SYMATTR InstName C2
SYMATTR Value 100n
SYMBOL nmos 928 -512 R0
SYMATTR InstName M5
SYMATTR Value IPB107N20N3
SYMBOL nmos 960 -32 R0
SYMATTR InstName M6
SYMATTR Value IPB107N20N3
SYMBOL voltage 1376 -336 R0
WINDOW 123 0 0 Left 0
WINDOW 39 24 44 Left 2
SYMATTR SpiceLine Rser=0.1 Cpar=10uF
SYMATTR InstName V7
SYMATTR Value 180
SYMBOL diode 1120 -432 R180
WINDOW 0 24 64 Left 2
WINDOW 3 24 0 Left 2
SYMATTR InstName D1
SYMBOL diode 1136 48 R180
WINDOW 0 24 64 Left 2
WINDOW 3 24 0 Left 2
SYMATTR InstName D2
SYMBOL cap 1712 -240 R0
SYMATTR InstName C5
SYMATTR Value 56µ
SYMATTR SpiceLine Rser=0.05
SYMBOL ind 1232 -288 R90
WINDOW 0 5 56 VBottom 2
WINDOW 3 32 56 VTop 2
SYMATTR InstName L1
SYMATTR Value 65µ
SYMATTR SpiceLine Ipk=16 Rser=2m
SYMBOL res 1248 128 R0
SYMATTR InstName R29
SYMATTR Value 0.1
SYMATTR SpiceLine tol=5
SYMBOL res 1488 320 R90
WINDOW 0 0 56 VBottom 2
WINDOW 3 32 56 VTop 2
SYMATTR InstName R30
SYMATTR Value 220
SYMBOL cap 1456 336 R0
SYMATTR InstName C3
SYMATTR Value 47n
SYMBOL res 1568 320 R90
WINDOW 0 0 56 VBottom 2
WINDOW 3 32 56 VTop 2
SYMATTR InstName R31
SYMATTR Value 220
SYMBOL cap 1536 336 R0
SYMATTR InstName C6
SYMATTR Value 47n
SYMBOL res 1648 320 R90
WINDOW 0 0 56 VBottom 2
WINDOW 3 32 56 VTop 2
SYMATTR InstName R32
SYMATTR Value 220
SYMBOL cap 1616 336 R0
SYMATTR InstName C4
SYMATTR Value 47n
SYMBOL res 1376 128 R0
SYMATTR InstName R33
SYMATTR Value 0.1
SYMBOL res 1904 256 R90
WINDOW 0 0 56 VBottom 2
WINDOW 3 32 56 VTop 2
SYMATTR InstName R34
SYMATTR Value 1k
SYMBOL cap 1872 272 R0
SYMATTR InstName C7
SYMATTR Value 100n
SYMBOL res 1984 256 R90
WINDOW 0 0 56 VBottom 2
WINDOW 3 32 56 VTop 2
SYMATTR InstName R35
SYMATTR Value 1k
SYMBOL res 2064 256 R90
WINDOW 0 0 56 VBottom 2
WINDOW 3 32 56 VTop 2
SYMATTR InstName R36
SYMATTR Value 1k
SYMBOL cap 1952 272 R0
SYMATTR InstName C8
SYMATTR Value 100n
SYMBOL cap 2032 272 R0
SYMATTR InstName C9
SYMATTR Value 100n
SYMBOL res 2144 256 R90
WINDOW 0 0 56 VBottom 2
WINDOW 3 32 56 VTop 2
SYMATTR InstName R37
SYMATTR Value 1k
SYMBOL cap 2112 272 R0
SYMATTR InstName C10
SYMATTR Value 470n
SYMBOL cap 1456 160 R0
SYMATTR InstName C11
SYMATTR Value 1µ
SYMBOL cap 1216 -160 R0
SYMATTR InstName C12
SYMATTR Value 1µ
SYMATTR SpiceLine V=400 Rser=10m
SYMBOL ind 1264 0 R0
SYMATTR InstName L2
SYMATTR Value 100m
SYMATTR SpiceLine Rser=8 Cpar=100n
SYMBOL OpAmps\\UniversalOpAmp4 1776 496 R0
SYMATTR InstName U3
SYMBOL res 1904 480 R90
WINDOW 0 0 56 VBottom 2
WINDOW 3 32 56 VTop 2
SYMATTR InstName R39
SYMATTR Value 100k
SYMBOL res 1600 496 R90
WINDOW 0 0 56 VBottom 2
WINDOW 3 32 56 VTop 2
SYMATTR InstName R40
SYMATTR Value 50k
SYMBOL res 1616 512 R0
SYMATTR InstName R41
SYMATTR Value 100k
SYMBOL res 1712 448 R90
WINDOW 0 0 56 VBottom 2
WINDOW 3 32 56 VTop 2
SYMATTR InstName R38
SYMATTR Value 50k
SYMBOL OpAmps\\UniversalOpAmp4 1376 592 R0
SYMATTR InstName U4
SYMBOL OpAmps\\UniversalOpAmp4 1376 784 R0
SYMATTR InstName U5
SYMBOL res 1184 656 R0
SYMATTR InstName R42
SYMATTR Value 1
SYMBOL res 1184 496 R0
SYMATTR InstName R44
SYMATTR Value 1
TEXT -592 232 Left 2 !.tran 0.05s
TEXT 3808 -424 Left 2 !.SUBCKT irf540n 1 2 3\n* SPICE3 MODEL WITH THERMAL RC NETWORK\n**************************************\n*      Model Generated by MODPEX     *\n*Copyright(c) Symmetry Design Systems*\n*         All Rights Reserved        *\n*    UNPUBLISHED LICENSED SOFTWARE   *\n*   Contains Proprietary Information *\n*      Which is The Property of      *\n*     SYMMETRY OR ITS LICENSORS      *\n*Commercial Use or Resale Restricted *\n*   by Symmetry License Agreement    *\n**************************************\n* Model generated on Sep  5, 01\n* MODEL FORMAT: SPICE3\n* Symmetry POWER MOS Model (Version 1.0)\n* External Node Designations\n* Node 1 -> Drain\n* Node 2 -> Gate\n* Node 3 -> Source\nM1 9 7 8 8 MM L=100u W=100u\n.MODEL MM NMOS LEVEL=1 IS=1e-32\n+VTO=3.58173 LAMBDA=0.00806114 KP=112.25\n+CGSO=1.896e-05 CGDO=1e-11\nRS 8 3 0.025918\nD1 3 1 MD\n.MODEL MD D IS=1.565e-11 RS=0.006486 N=1.1328 BV=100\n+IBV=0.00025 EG=1.2 XTI=3.32496 TT=0\n+CJO=1.16e-09 VJ=3.16363 M=0.840542 FC=0.5\nRDS 3 1 1e+06\nRD 9 1 0.0130608\nRG 2 7 6.45271\nD2 4 5 MD1\n* Default values used in MD1:\n*   RS=0 EG=1.11 XTI=3.0 TT=0\n*   BV=infinite IBV=1mA\n.MODEL MD1 D IS=1e-32 N=50\n+CJO=1.30485e-09 VJ=0.899032 M=0.9 FC=1e-08\nD3 0 5 MD2\n* Default values used in MD2:\n*   EG=1.11 XTI=3.0 TT=0 CJO=0\n*   BV=infinite IBV=1mA\n.MODEL MD2 D IS=1e-10 N=0.4 RS=3e-06\nRL 5 10 1\nFI2 7 9 VFI2 -1\nVFI2 4 0 0\nEV16 10 0 9 7 1\nCAP 11 10 2.35428e-09\nFI1 7 9 VFI1 -1\nVFI1 11 6 0\nRCAP 6 10 1\nD4 0 6 MD3\n* Default values used in MD3:\n*   EG=1.11 XTI=3.0 TT=0 CJO=0\n*   RS=0 BV=infinite IBV=1mA\n.MODEL MD3 D IS=1e-10 N=0.4\n.ENDS irf540n\n \n*SPICE Thermal Model Subcircuit\n.SUBCKT irf540nt 3 0\n \nR_RTHERM1         2 3  0.158\nR_RTHERM2         1 2  0.274\nR_RTHERM3         0 1  0.29\nC_CTHERM1         2 3  0.00131\nC_CTHERM2         1 2  0.001686\nC_CTHERM3         0 1  0.022562\n \n.ENDS irf540nt
TEXT 4656 -480 Left 2 !.SUBCKT irf9540npbf 1 2 3\n**************************************\n*      Model Generated by MODPEX     *\n*Copyright(c) Symmetry Design Systems*\n*         All Rights Reserved        *\n*    UNPUBLISHED LICENSED SOFTWARE   *\n*   Contains Proprietary Information *\n*      Which is The Property of      *\n*     SYMMETRY OR ITS LICENSORS      *\n*Commercial Use or Resale Restricted *\n*   by Symmetry License Agreement    *\n**************************************\n* Model generated on Aug 15, 17\n* MODEL FORMAT: SPICE3\n* Symmetry POWER MOS Model (Version 1.0)\n* External Node Designations\n* Node 1 -> Drain\n* Node 2 -> Gate\n* Node 3 -> Source\nM1 9 7 8 8 MM L=100u W=100u\n.MODEL MM PMOS LEVEL=1 IS=1e-32\n+VTO=-3.74034 LAMBDA=0.00254531 KP=6.90462\n+CGSO=1.15995e-05 CGDO=1e-11\nRS 8 3 0.0448511\nD1 1 3 MD\n.MODEL MD D IS=4.56468e-09 RS=0.00874877 N=1.45317 BV=100\n+IBV=0.00025 EG=1.15553 XTI=3.00117 TT=1e-07\n+CJO=9.64423e-10 VJ=0.500897 M=0.387171 FC=0.5\nRDS 3 1 2e+07\nRD 9 1 0.0421247\nRG 2 7 6.66725\nD2 5 4 MD1\n* Default values used in MD1:\n*   RS=0 EG=1.11 XTI=3.0 TT=0\n*   BV=infinite IBV=1mA\n.MODEL MD1 D IS=1e-32 N=50\n+CJO=3.36744e-09 VJ=0.5 M=0.683702 FC=1e-08\nD3 5 0 MD2\n* Default values used in MD2:\n*   EG=1.11 XTI=3.0 TT=0 CJO=0\n*   BV=infinite IBV=1mA\n.MODEL MD2 D IS=1e-10 N=0.4 RS=2.99982e-06\nRL 5 10 1\nFI2 7 9 VFI2 -1\nVFI2 4 0 0\nEV16 10 0 9 7 1\nCAP 11 10 3.66446e-09\nFI1 7 9 VFI1 -1\nVFI1 11 6 0\nRCAP 6 10 1\nD4 6 0 MD3\n* Default values used in MD3:\n*   EG=1.11 XTI=3.0 TT=0 CJO=0\n*   RS=0 BV=infinite IBV=1mA\n.MODEL MD3 D IS=1e-10 N=0.4\n.ENDS irf9540npbf
